LAMMPS (29 Aug 2024 - Development - patch_29Aug2024-722-g6d634dc646)
shell rm angle_approach.txt
shell rm capsid_force.txt
shell rm capsid_velocity.txt
shell rm capsid_pressure.txt
shell rm tail_force.txt
shell rm tail_pressure.txt
shell rm tail_velocity.txt
shell rm pack_fraction.txt
shell rm xyz_50.txt
shell rm xyz_150.txt
shell rm xyz_250.txt
shell rm xyz_350.txt
shell rm dist_com.txt
shell rm netvz.txt
shell rm netfz.txt
shell rm ini_count.txt
shell rm exit_radial_dist.txt
shell rm caps_energy.txt
shell rm poly_energy.txt
shell rm tail_energy.txt

units lj
atom_style full
#pair_style lj/cut 2.5
boundary p p p

#region simbox block -50 50 -50 50 -50 50
#create_box 1 simbox
read_data poly_in_iso.data
Reading data file ...
  orthogonal box = (-81 -81 -17.657) to (81 81 499.88)
  reading atoms ...
  1942 atoms
  scanning bonds ...
  scanning angles ...
  orthogonal box = (-81 -81 -17.657) to (81 81 499.88)
  reading bonds ...
  399 bonds
  reading angles ...
  398 angles
Finding 1-2 1-3 1-4 neighbors ...
     2 = max # of 1-2 neighbors
     2 = max # of 1-3 neighbors
     4 = max # of 1-4 neighbors
     6 = max # of special neighbors
include ico_zone.lam
region plane0 plane 5.95455565846428 0.0 2.9772778292321402 -0.4911234731884231 -0.35682208977308993 -0.7946544722917662
region plane1 plane 1.8400588924169679 5.663118960624632 2.9772778292321402 0.18759247408507987 -0.5773502691896258 -0.7946544722917662
region plane2 plane -4.817336721649107 3.500000000000001 2.9772778292321402 0.6070619982066862 -7.702562374674498e-17 -0.7946544722917661
region plane3 plane -4.817336721649108 -3.4999999999999996 2.9772778292321402 0.18759247408507998 0.5773502691896257 -0.7946544722917662
region plane4 plane 1.8400588924169665 -5.663118960624632 2.9772778292321402 -0.4911234731884229 0.35682208977309005 -0.7946544722917661
region plane5 plane 5.95455565846428 0.0 2.9772778292321402 -0.7946544722917662 -0.5773502691896258 -0.1875924740850799
region plane6 plane 1.8400588924169679 5.663118960624632 2.9772778292321402 0.3035309991033431 -0.9341723589627158 -0.18759247408507987
region plane7 plane -4.817336721649107 3.500000000000001 2.9772778292321402 0.9822469463768461 -1.2463007722689438e-16 -0.18759247408507995
region plane8 plane -4.817336721649108 -3.4999999999999996 2.9772778292321402 0.30353099910334325 0.9341723589627157 -0.18759247408507979
region plane9 plane 1.8400588924169665 -5.663118960624632 2.9772778292321402 -0.7946544722917661 0.577350269189626 -0.18759247408507992
region plane10 plane 4.817336721649107 3.500000000000001 -2.9772778292321394 -0.303530999103343 -0.9341723589627157 0.18759247408507984
region plane11 plane -1.8400588924169679 5.663118960624632 -2.9772778292321394 0.7946544722917661 -0.5773502691896257 0.18759247408507987
region plane12 plane -5.95455565846428 0.0 -2.9772778292321394 0.794654472291766 0.5773502691896257 0.1875924740850799
region plane13 plane -1.8400588924169665 -5.663118960624632 -2.9772778292321394 -0.30353099910334325 0.9341723589627157 0.18759247408507987
region plane14 plane 4.817336721649108 -3.4999999999999996 -2.9772778292321394 -0.9822469463768461 -1.2463007722689438e-16 0.18759247408507992
region plane15 plane 4.817336721649107 3.500000000000001 -2.9772778292321394 -0.18759247408507987 -0.5773502691896258 0.7946544722917661
region plane16 plane -1.8400588924169679 5.663118960624632 -2.9772778292321394 0.49112347318842303 -0.35682208977308993 0.794654472291766
region plane17 plane -5.95455565846428 0.0 -2.9772778292321394 0.4911234731884231 0.3568220897730901 0.7946544722917661
region plane18 plane -1.8400588924169665 -5.663118960624632 -2.9772778292321394 -0.18759247408507998 0.5773502691896257 0.794654472291766
region plane19 plane 4.817336721649108 -3.4999999999999996 -2.9772778292321394 -0.6070619982066865 -7.7025623746745e-17 0.794654472291766
region icoregion1 intersect 5 plane0 plane1 plane2 plane3 plane4
region icoregion2 intersect 5 plane5 plane6 plane7 plane8 plane9
region icoregion3 intersect 5 plane10 plane11 plane12 plane13 plane14
region icoregion4 intersect 5 plane15 plane16 plane17 plane18 plane19
region icoregion5 plane 0 0 5.605933389827808 0 0 -1
region icoregion intersect 5 icoregion1 icoregion2 icoregion3 icoregion4 icoregion5
include tail_zone.lam
region tail_region cylinder z 0 0 1.25 5.605933389827808 15.605933389827808
include ico_volume.lam
variable volico equal 748.3213817843449
variable voltail equal 49.08738521234052
group poly type 1
400 atoms in group poly
group ico  type 2
566 atoms in group ico
group crow type 3
976 atoms in group crow
group poly1 id 1
1 atoms in group poly1
group poly400 id 400
1 atoms in group poly400
group Capsid dynamic poly region icoregion
dynamic group Capsid defined
group Tail dynamic poly region tail_region
dynamic group Tail defined

#change_box crowper boundary p p p
#change_box all x final -50 50 y -50 50 z -50 70 boundary p p p

#set group poly image 0 0 0

#neighbor       4 bin
neigh_modify   every 1 delay 0 check yes
neigh_modify   exclude type 2 2
neigh_modify   exclude type 1 3
neigh_modify   exclude type 3 3
neigh_modify   exclude type 2 3
#for injection above

include region_specify.lam
region cylb cylinder z 0 0 0.65 0.6059333898278076 10.605933389827808
region sphe1 sphere 0 0 0 5.605933389827808 side out
region sphe2 sphere 0 0 0 6.605933389827808 side in
region spheshell intersect 2 sphe1 sphe2
region cyl1 intersect 2 spheshell cylb
region cyl2 cylinder z 0 0 0.65 5.605933389827808 6.605933389827808
#include sphere_region.lam

#include        param-neutral-polymer-good.prm
include        param_elec_hybrid.prm
set group poly charge 0
Setting atom values ...
  400 settings made for charge
#set group crow charge 0.1
dielectric 1.0

special_bonds	fene dihedral no
Finding 1-2 1-3 1-4 neighbors ...
     2 = max # of 1-2 neighbors
     6 = max # of special neighbors
bond_style	fene
bond_coeff      1 30.0 1.5 1.0 1.0

include		angle_p.prm
angle_style	cosine
angle_coeff	1 0

pair_style      lj/cut 1.122462048309373
pair_modify	shift yes
#kspace_style	ewald 1e-6

pair_coeff      1 1 1.000000 1.000000 1.1220000000
#pair_coeff      1 1 yukawa 0.17857142857
pair_coeff      1 2 2.000000 1.000000 1.1220000000
pair_coeff      1 3 1.000000 1.000000 1.1220000000
#pair_coeff      1 3 coul/debye 3
pair_coeff      2 2 0.000000 1.000000 1.1220000000
pair_coeff      2 3 1.000000 1.000000 1.1220000000
pair_coeff      3 3 1.000000 1.000000 1.1220000000
#pair_coeff      3 3 coul/debye 3
pair_coeff      1 3 0.000000 1.000000 1.1220000000
#include 	param_elec_new.prm
#include 	sample.prm
velocity       all create 1.0 29425

thermo 10000
thermo_modify lost ignore
thermo_modify lost/bond ignore
timestep 0.001
dump trajectory all atom 1000 dump_elec.lammpstrj

#injection
fix icofreeze ico setforce 0.0 0.0 0.0
fix crowfreeze crow setforce 0.0 0.0 0.0
#equiblration
#fix injruneq poly nvt temp 0.5 0.6 1.0
#fix bead400freeze poly400 setforce 0 0 0
#run 200000
#unfix injruneq
#unfix bead400freeze
variable caps_count equal count(Capsid)
fix inmotor poly addforce 0 0 -80 region cyl2
fix injrun poly nvt temp 1.0 1.0 1.0
fix ih1 all halt 1 v_caps_count > 391 error continue message yes

run 2000000

CITE-CITE-CITE-CITE-CITE-CITE-CITE-CITE-CITE-CITE-CITE-CITE-CITE

Your simulation uses code contributions which should be cited:

- Type Label Framework: https://doi.org/10.1021/acs.jpcb.3c08419

@Article{Gissinger24,
 author = {Jacob R. Gissinger, Ilia Nikiforov, Yaser Afshar, Brendon Waters, Moon-ki Choi, Daniel S. Karls, Alexander Stukowski, Wonpil Im, Hendrik Heinz, Axel Kohlmeyer, and Ellad B. Tadmor},
 title = {Type Label Framework for Bonded Force Fields in LAMMPS},
 journal = {J. Phys. Chem. B},
 year =    2024,
 volume =  128,
 number =  13,
 pages =   {3282--3297}
}

CITE-CITE-CITE-CITE-CITE-CITE-CITE-CITE-CITE-CITE-CITE-CITE-CITE

Generated 0 of 3 mixed pair_coeff terms from geometric mixing rule
4
Step          Temp          E_pair         E_mol          TotEng         Press
0   1              0              5.6537805      7.1530081     -0.00068830308
4
4
4
4
4
4
4
4
4
4
4
4
4
4
4
4
4
4
4
4
6
8
10
12
15
17
19
21
23
25
27
29
31
33
35
37
39
41
43
45
47
49
50
52
54
55
57
59
60
62
63
65
66
68
70
72
74
75
77
79
81
83
85
87
89
91
93
95
97
99
101
103
105
107
109
110
112
114
116
118
120
122
124
126
128
130
132
134
136
138
140
142
144
147
149
151
153
155
157
159
162
164
166
168
170
173
175
177
179
181
184
186
188
190
193
195
197
200
202
204
207
209
212
214
217
219
221
224
226
229
232
234
237
239
242
244
247
250
253
255
258
261
264
267
270
273
276
278
281
284
288
291
294
298
301
304
307
311
315
318
322
326
330
333
337
342
346
351
355
360
366
372
378
385
Fix halt condition for fix-id ih1 met on step 174692 with value 392 (../fix_halt.cpp:240)
Loop time of 97.0589 on 1 procs for 174692 steps with 1942 atoms

unfix ih1
#unfix beadfreeze1
unfix inp_tr1
unfix inmotor
unfix crowfreeze
unfix injrun
#unfix equilbrator

#equilibriation
neigh_modify   exclude none
neigh_modify   exclude type 2 2
include sphere_region.lam
region spheAc sphere 0 0 95.60693338982782 80 side out
region spheB sphere 0 0 95.60693338982782 79.95 side in
region spheA sphere 0 0 95.60693338982782 80 side in
region spheBc sphere 0 0 95.60693338982782 79.95 side out
region cylA cylinder z 0 0 1.25 11.105933389827808 21.105933389827808 side in
region cylB cylinder z 0 0 0.75 11.105933389827808 21.105933389827808 side in
region shell union 3 spheAc spheB cylA
region shell1 union 3 spheAc spheB cylB
fix wall all wall/region shell lj126 3.0 1.0 1.22
pair_coeff      1 3 1.000000 1.000000 1.1220000000
velocity       all create 1.0 29425
fix beadfreeze1 poly1 setforce 0.0 0.0 0.0
min_modify     dmax 0.001
minimize       1e-28 1e-28 1000 100000000
Generated 0 of 3 mixed pair_coeff terms from geometric mixing rule
Step          Temp          E_pair         E_mol          TotEng         Press
174692   1              0.053156326    4.2368302      5.7892141      0.00020971969
Loop time of 0.175515 on 1 procs for 732 steps with 1942 atoms

Minimization stats:
  Stopping criterion = energy tolerance
  Energy initial, next-to-last, final =
  Force two-norm initial, final = 817.22746 1.3100863e-05
  Force max component initial, final = 177.00063 4.5595003e-06
  Final line search alpha, max atom move = 1 4.5595003e-06
  Iterations, force evaluations = 732 941

fix equilibrator poly nvt temp 1.0 1.0 1.0
run 300
Generated 0 of 3 mixed pair_coeff terms from geometric mixing rule
Step          Temp          E_pair         E_mol          TotEng         Press
175424   1              0              4.1507863      5.6500139      0.0001429072
Loop time of 0.104474 on 1 procs for 300 steps with 1942 atoms

unfix equilibrator
unfix beadfreeze1

#equilibrium beads
fix polyfreeze poly setforce 0.0 0.0 0.0
fix equilibrator_1 crow nvt temp 1.0 1.0 1.0
run 20000
Generated 0 of 3 mixed pair_coeff terms from geometric mixing rule
Step          Temp          E_pair         E_mol          TotEng         Press
175724   0.93014118     0.055262947    4.2147988      5.664555       0.00019114889
Loop time of 8.96296 on 1 procs for 20000 steps with 1942 atoms

unfix equilibrator_1
unfix polyfreeze

#production
include motor_f.prm
fix motor poly addforce 0 0 5 region cyl2
fix integrator1 poly nvt temp 1.0 1.0 1.0
fix integrator2 crow nvt temp 1.0 1.0 1.0

#pressure_capsid
compute p1 Capsid stress/atom NULL
compute p2 Capsid reduce sum c_p1[1] c_p1[2] c_p1[3]
variable press_capsid equal -(c_p2[1]+c_p2[2]+c_p2[3])/(3*748.321381784345)

#pressure_tail
compute p4 Tail stress/atom NULL
compute p5 Tail reduce sum c_p4[1] c_p4[2] c_p4[3]
variable press_tail equal -(c_p5[1]+c_p5[2]+c_p5[3])/(3*49.0873852123405)

#com
compute cm1 poly com
variable cmpos equal sqrt((c_cm1[1])^2+(c_cm1[2])^2+(c_cm1[3])^2)

#net velocity_z
compute cv1 poly property/atom vz
compute cv2 poly reduce sum c_cv1
variable netvz equal c_cv2

#net force_z
compute cf1 poly property/atom fz
compute cf2 poly reduce sum c_cf1
variable netfz equal c_cf2

variable capsid_loc equal (401-count(Capsid))
variable capsid_locp equal (400-count(Capsid))
#variable capsid_loc
variable capsid_loc1 equal (402-count(Capsid))
variable capsid_loc2 equal (403-count(Capsid))
variable tail_loc equal (401-count(Tail)-count(Capsid))
variable tail_loc1 equal (411-count(Tail)-count(Capsid))

#compute in_capsid poly chunk/atom type region icoregion compress yes
#compute in_tail poly chunk/atom type region tail_region compress yes

#compute in_capsid1 poly property/chunk in_capsid id

#variable capsid_loc vector c_in_capsid
#variable tail_loc vector c_in_tail

#force_capsid
#compute f1 Capsid property/atom fx fy fz
#variable force_capsid equal sqrt((c_f1[v_capsid_loc][1])^2+(c_f1[v_capsid_loc][2])^2+(c_f1[v_capsid_loc][3])^2)

#force_tail
#compute f3 Tail property/atom fx fy fz
#variable force_tail equal sqrt((c_f3[v_tail_loc][1])^2+(c_f3[v_tail_loc][2])^2+(c_f3[v_tail_loc][3])^2)

#velocity_capsid
#compute v1 Capsid property/atom vx vy vz
#variable vel_capsid equal sqrt((C_v1[v_capsid_loc][1])^2+(C_v1[v_capsid_loc][2])^2+(C_v1[v_capsid_loc][3])^2)

#velocity_tail
#compute v3 Tail property/atom vx vy vz
#variable vel_tail equal sqrt((c_v3[v_tail_loc][1])^2+(c_v3[v_tail_loc][2])^2+(c_v3[v_tail_loc][3])^2)

compute rad1 Capsid property/atom x y
variable rd1 equal sqrt((C_rad1[v_capsid_loc][1])^2+(C_rad1[v_capsid_loc][2])^2)
variable rd2 equal sqrt((C_rad1[v_capsid_loc1][1])^2+(C_rad1[v_capsid_loc1][2])^2)
variable rd3 equal sqrt((C_rad1[v_capsid_loc2][1])^2+(C_rad1[v_capsid_loc2][2])^2)

#packing fraction
variable pack1 equal count(Capsid)

#rdf
#compute rdf1 Capsid rdf

#energy
compute epp1 poly pe/atom pair
compute epp2 poly pe/atom bond
compute epp3 poly pe/atom angle
compute ecc1 Capsid pe/atom pair
compute ecc2 Capsid pe/atom bond
compute ecc3 Capsid pe/atom angle
compute ett1 Tail pe/atom pair
compute ett2 Tail pe/atom bond
compute ett3 Tail pe/atom angle
compute ep1 poly reduce sum c_epp1
compute ep2 poly reduce sum c_epp2
compute ep3 poly reduce sum c_epp3
compute ec1 Capsid reduce sum c_ecc1
compute ec2 Capsid reduce sum c_ecc2
compute ec3 Capsid reduce sum c_ecc3
compute et1 Tail reduce sum c_ett1
compute et2 Tail reduce sum c_ett2
compute et3 Tail reduce sum c_ett3
variable ep1 equal c_ep1
variable ep2 equal c_ep2
variable ep3 equal c_ep3
variable ec1 equal c_ec1
variable ec2 equal c_ec2
variable ec3 equal c_ec3
variable et1 equal c_et1
variable et2 equal c_et2
variable et3 equal c_et3

#angle of approach
#variable av_beads equal count(Capsid)
#compute a1 Capsid property/atom x y z
#variable capsid_loc equal (401-count(Capsid))
#variable pos1 atom c_a1[370]
#variable pos2 atom c_a1[371]
#variable theta equal acos((v_pos1[3]-v_pos2[3])/((v_pos1[1]-v_pos2[1])^2+(v_pos1[2]-v_pos2[2])^2+(v_pos1[3]-v_pos2[3])^2))
#variable capsid_loc delete
#variable capsid_loc1 delete

#angle_of_approach
compute an1 poly property/atom x
compute an2 poly property/atom y
compute an3 poly property/atom z
variable x1 equal C_an1[v_capsid_locp]
variable y1 equal C_an2[v_capsid_locp]
variable z1 equal C_an3[v_capsid_locp]
variable x2 equal C_an1[v_capsid_loc]
variable y2 equal C_an2[v_capsid_loc]
variable z2 equal C_an3[v_capsid_loc]
variable mag12 equal (sqrt(((v_x1-v_x2)^2)+((v_y1-v_y2)^2)+((v_z1-v_z2)^2)))
variable theta equal (180/PI)*(acos((v_z1-v_z2)/v_mag12))

#trajectories
compute tr poly property/atom x y z
variable x50 equal C_tr[50][1]
variable y50 equal C_tr[50][2]
variable z50 equal C_tr[50][3]
variable x150 equal C_tr[150][1]
variable y150 equal C_tr[150][2]
variable z150 equal C_tr[150][3]
variable x250 equal C_tr[250][1]
variable y250 equal C_tr[250][2]
variable z250 equal C_tr[250][3]
variable x350 equal C_tr[350][1]
variable y350 equal C_tr[350][2]
variable z350 equal C_tr[350][3]

#dump trajectory all atom 1000 dump_elec.lammpstrj
fix h1 all halt 1 v_pack1 < 1 error continue message yes
run 1500000
Generated 0 of 3 mixed pair_coeff terms from geometric mixing rule
Step          Temp          E_pair         E_mol          TotEng         Press
195724   0.94166839     0.055329109    4.2147988      5.6819031      0.00019293962
391
388
387
385
382
381
380
379
378
376
375
375
375
375
374
374
373
373
372
370
368
367
366
365
364
364
363
363
363
363
363
362
361
359
358
357
356
355
354
354
353
352
351
350
349
349
348
346
345
343
342
341
340
339
338
337
336
334
334
333
332
331
331
332
331
331
332
331
331
331
330
330
330
329
329
328
327
326
326
325
324
323
322
321
321
321
319
320
320
319
319
319
319
319
319
318
318
318
318
319
319
319
318
317
316
315
315
315
315
314
314
313
313
312
311
310
309
308
308
307
306
306
305
304
303
303
302
301
301
301
301
300
299
298
297
297
296
296
295
294
293
293
291
291
290
290
290
289
288
289
288
289
289
288
288
287
285
285
284
283
284
283
283
283
283
282
283
282
282
281
280
279
277
277
276
275
274
274
273
272
270
270
269
268
268
269
268
268
267
266
265
265
264
263
263
262
261
260
259
258
258
257
256
255
254
254
254
254
254
254
254
254
254
254
253
252
251
250
249
248
247
247
247
248
247
247
247
246
246
245
245
244
244
243
243
243
242
241
241
240
239
239
238
237
237
237
236
235
235
234
233
232
231
231
231
230
229
229
228
229
228
228
228
227
227
227
226
226
226
226
226
225
226
226
226
226
226
226
225
226
225
225
225
224
225
225
224
224
223
223
223
222
221
221
220
220
219
218
218
218
218
218
217
217
216
215
215
215
214
214
213
212
211
210
209
208
207
207
206
206
207
206
206
205
205
204
204
203
203
203
203
204
203
203
204
203
203
202
202
202
202
202
203
202
202
201
200
200
199
199
199
198
198
197
197
196
196
195
195
194
194
194
194
194
194
194
193
194
193
193
193
192
191
191
190
190
191
191
190
190
190
190
189
188
189
188
187
187
187
186
187
186
185
186
185
185
186
186
186
185
185
185
185
185
185
184
183
183
182
181
181
182
182
182
182
181
181
181
180
181
180
179
177
177
177
178
177
178
177
178
177
176
176
176
175
175
174
174
173
173
174
174
173
173
172
171
171
170
170
169
169
169
169
169
168
167
166
166
165
164
164
163
162
162
161
162
161
161
161
161
161
160
160
160
160
159
160
160
159
160
159
160
159
159
158
158
159
159
159
159
158
157
156
156
155
154
153
152
151
151
151
152
151
150
149
149
148
148
147
147
146
145
145
145
145
145
145
144
144
144
145
144
144
143
143
144
143
143
143
143
142
142
143
143
142
143
142
141
141
141
141
141
141
141
140
141
141
140
140
139
139
138
138
138
137
136
136
136
135
135
135
134
135
135
134
135
135
135
135
134
134
134
133
133
132
131
130
129
129
130
129
129
128
128
128
127
127
126
127
126
126
126
127
126
126
125
125
126
126
125
125
125
124
125
125
124
125
125
124
125
125
124
124
123
123
123
122
122
122
122
121
120
120
120
119
120
120
119
119
120
119
118
119
118
118
118
119
119
118
118
118
117
118
118
117
118
118
117
117
117
118
118
118
117
118
118
117
117
117
117
116
116
115
115
116
115
114
114
114
114
113
114
113
113
112
112
113
112
113
113
113
113
112
111
110
110
111
110
109
108
109
109
108
108
108
108
109
108
109
108
108
108
107
106
106
105
104
103
103
102
103
102
103
102
102
103
102
103
102
102
101
101
101
100
100
101
101
101
101
101
101
101
100
100
101
101
101
100
100
99
99
99
98
98
98
99
99
98
